
     RDKit          3D

  7  7  0  0  0  0  0  0  0  0999 V2000
  -22.1597   47.1791   -2.3097 N   0  0  0  0  0  0  0  0  0  0  0  0
  -23.4789   47.6424   -2.8336 C   0  0  2  0  0  0  0  0  0  0  0  0
  -23.3564   48.6048   -4.0551 C   0  0  0  0  0  0  0  0  0  0  0  0
  -23.6012   49.9530   -3.5524 O   0  0  0  0  0  0  0  0  0  0  0  0
  -24.1631   49.8341   -2.2403 N   0  0  0  0  0  0  0  0  0  0  0  0
  -24.2292   48.5367   -1.8325 C   0  0  0  0  0  0  0  0  0  0  0  0
  -24.8134   48.1824   -0.8190 O   0  0  0  0  0  0  0  0  0  0  0  0
  5  4  1  0
  4  3  1  0
  3  2  1  0
  2  1  1  1
  2  6  1  0
  6  7  2  0
  6  5  1  0
M  END
$$$$
