
     RDKit          3D

  7  7  0  0  0  0  0  0  0  0999 V2000
  -21.8723   47.4768   -2.3861 N   0  0  0  0  0  0  0  0  0  0  0  0
  -23.2312   47.8949   -2.8461 C   0  0  2  0  0  0  0  0  0  0  0  0
  -23.2175   49.0215   -3.9255 C   0  0  0  0  0  0  0  0  0  0  0  0
  -23.6504   50.2506   -3.2651 O   0  0  0  0  0  0  0  0  0  0  0  0
  -24.1507   49.9015   -1.9702 N   0  0  0  0  0  0  0  0  0  0  0  0
  -24.0497   48.5644   -1.7302 C   0  0  0  0  0  0  0  0  0  0  0  0
  -24.5418   48.0212   -0.7520 O   0  0  0  0  0  0  0  0  0  0  0  0
  5  4  1  0
  4  3  1  0
  3  2  1  0
  2  1  1  1
  2  6  1  0
  6  7  2  0
  6  5  1  0
M  END
$$$$
