
     RDKit          3D

  7  7  0  0  0  0  0  0  0  0999 V2000
  -22.4025   50.0853   -4.2226 N   0  0  0  0  0  0  0  0  0  0  0  0
  -21.7243   51.0816   -3.3097 C   0  0  2  0  0  0  0  0  0  0  0  0
  -22.0687   50.8736   -1.8109 C   0  0  0  0  0  0  0  0  0  0  0  0
  -23.1334   51.8079   -1.5059 O   0  0  0  0  0  0  0  0  0  0  0  0
  -23.0003   52.8918   -2.4348 N   0  0  0  0  0  0  0  0  0  0  0  0
  -22.1525   52.5590   -3.4569 C   0  0  0  0  0  0  0  0  0  0  0  0
  -21.7482   53.3606   -4.2811 O   0  0  0  0  0  0  0  0  0  0  0  0
  5  4  1  0
  4  3  1  0
  3  2  1  0
  2  1  1  6
  2  6  1  0
  6  7  2  0
  6  5  1  0
M  END
$$$$
