
     RDKit          3D

  7  7  0  0  0  0  0  0  0  0999 V2000
  -21.7621   47.4634   -2.1214 N   0  0  0  0  0  0  0  0  0  0  0  0
  -22.7250   48.2785   -2.9196 C   0  0  2  0  0  0  0  0  0  0  0  0
  -22.0521   49.4829   -3.6430 C   0  0  0  0  0  0  0  0  0  0  0  0
  -22.2952   50.6426   -2.7934 O   0  0  0  0  0  0  0  0  0  0  0  0
  -23.4110   50.3357   -1.9599 N   0  0  0  0  0  0  0  0  0  0  0  0
  -23.7538   49.0185   -2.0459 C   0  0  0  0  0  0  0  0  0  0  0  0
  -24.7397   48.5301   -1.5063 O   0  0  0  0  0  0  0  0  0  0  0  0
  5  4  1  0
  4  3  1  0
  3  2  1  0
  2  1  1  1
  2  6  1  0
  6  7  2  0
  6  5  1  0
M  END
$$$$
