
     RDKit          3D

  7  7  0  0  0  0  0  0  0  0999 V2000
  -22.2275   47.2938   -2.4176 N   0  0  0  0  0  0  0  0  0  0  0  0
  -23.5734   47.7930   -2.8378 C   0  0  2  0  0  0  0  0  0  0  0  0
  -23.5190   48.8714   -3.9663 C   0  0  0  0  0  0  0  0  0  0  0  0
  -23.8247   50.1559   -3.3431 O   0  0  0  0  0  0  0  0  0  0  0  0
  -24.2992   49.9014   -2.0158 N   0  0  0  0  0  0  0  0  0  0  0  0
  -24.2962   48.5720   -1.7227 C   0  0  0  0  0  0  0  0  0  0  0  0
  -24.8055   48.1110   -0.7124 O   0  0  0  0  0  0  0  0  0  0  0  0
  5  4  1  0
  4  3  1  0
  3  2  1  0
  2  1  1  1
  2  6  1  0
  6  7  2  0
  6  5  1  0
M  END
$$$$
