
     RDKit          3D

  7  7  0  0  0  0  0  0  0  0999 V2000
    2.3460   28.8410  -12.8410 N   0  0  0  0  0  0  0  0  0  0  0  0
    3.4943   28.1525  -12.1545 C   0  0  2  0  0  0  0  0  0  0  0  0
    4.8152   28.9729  -12.1711 C   0  0  0  0  0  0  0  0  0  0  0  0
    5.6030   28.4285  -13.2584 O   0  0  0  0  0  0  0  0  0  0  0  0
    5.1716   27.0752  -13.4216 N   0  0  0  0  0  0  0  0  0  0  0  0
    3.9424   26.8813  -12.8543 C   0  0  0  0  0  0  0  0  0  0  0  0
    3.2884   25.8609  -12.9542 O   0  0  0  0  0  0  0  0  0  0  0  0
  5  4  1  0
  4  3  1  0
  3  2  1  0
  2  1  1  6
  2  6  1  0
  6  7  2  0
  6  5  1  0
M  END
$$$$
