
     RDKit          3D

  7  7  0  0  0  0  0  0  0  0999 V2000
    1.3237   27.8408  -12.0632 N   0  0  0  0  0  0  0  0  0  0  0  0
    2.3557   26.9691  -12.7329 C   0  0  2  0  0  0  0  0  0  0  0  0
    2.6363   25.6682  -11.9257 C   0  0  0  0  0  0  0  0  0  0  0  0
    3.9114   25.8798  -11.2560 O   0  0  0  0  0  0  0  0  0  0  0  0
    4.6262   26.8249  -12.0404 N   0  0  0  0  0  0  0  0  0  0  0  0
    3.7772   27.5641  -12.8126 C   0  0  0  0  0  0  0  0  0  0  0  0
    4.1023   28.6171  -13.3401 O   0  0  0  0  0  0  0  0  0  0  0  0
  5  4  1  0
  4  3  1  0
  3  2  1  0
  2  1  1  1
  2  6  1  0
  6  7  2  0
  6  5  1  0
M  END
$$$$
