
     RDKit          3D

  7  7  0  0  0  0  0  0  0  0999 V2000
    0.3592   -1.2813   -0.0400 C   0  0  0  0  0  0  0  0  0  0  0  0
   -0.4323   -0.1122   -0.6177 C   0  0  2  0  0  0  0  0  0  0  0  0
    0.4758    1.0355   -0.2423 C   0  0  0  0  0  0  0  0  0  0  0  0
    0.4273    2.1707   -0.6899 O   0  0  0  0  0  0  0  0  0  0  0  0
    1.3092    0.6017    0.7561 N   0  0  0  0  0  0  0  0  0  0  0  0
    1.1014   -0.7585    1.0728 O   0  0  0  0  0  0  0  0  0  0  0  0
   -1.7619    0.0672    0.0014 N   0  0  0  0  0  0  0  0  0  0  0  0
  1  2  1  0
  2  3  1  0
  3  4  2  0
  3  5  1  0
  5  6  1  0
  2  7  1  1
  6  1  1  0
M  END
$$$$
