
     RDKit          3D

 16 16  0  0  0  0  0  0  0  0999 V2000
    8.0469   27.7219  -12.9969 C   0  0  0  0  0  0  0  0  0  0  0  0
    6.7954   26.9813  -12.5264 C   0  0  0  0  0  0  0  0  0  0  0  0
    6.9929   25.6879  -12.1928 N   0  0  0  0  0  0  0  0  0  0  0  0
    5.9481   24.9717  -11.7347 C   0  0  0  0  0  0  0  0  0  0  0  0
    4.6478   25.4898  -11.6381 C   0  0  0  0  0  0  0  0  0  0  0  0
    3.5506   24.5814  -11.1020 C   0  0  0  0  0  0  0  0  0  0  0  0
    2.5568   24.4465  -12.1127 O   0  0  0  0  0  0  0  0  0  0  0  0
    1.2586   23.5858  -11.8057 P   0  0  0  0  0  5  0  0  0  0  0  0
    0.2970   23.3982  -12.8900 O   0  0  0  0  0  0  0  0  0  0  0  0
    1.8155   22.2835  -11.1495 O   0  0  0  0  0  0  0  0  0  0  0  0
    0.6727   24.2889  -10.5433 O   0  0  0  0  0  0  0  0  0  0  0  0
    4.4077   26.8244  -12.0563 C   0  0  0  0  0  0  0  0  0  0  0  0
    3.0049   27.3889  -12.0576 C   0  0  0  0  0  0  0  0  0  0  0  0
    2.6410   28.3401  -12.7279 O   0  0  0  0  0  0  0  0  0  0  0  0
    5.5211   27.5998  -12.4732 C   0  0  0  0  0  0  0  0  0  0  0  0
    5.3794   28.9320  -12.7869 O   0  0  0  0  0  0  0  0  0  0  0  0
 16 15  1  0
 15  2  2  0
  2  1  1  0
  2  3  1  0
  3  4  2  0
  4  5  1  0
  5  6  1  0
  6  7  1  0
  7  8  1  0
  8  9  2  0
  8 10  1  0
  8 11  1  0
  5 12  2  0
 12 13  1  0
 13 14  2  0
 12 15  1  0
M  END
$$$$
