
     RDKit          3D

 16 16  0  0  0  0  0  0  0  0999 V2000
    7.9314   27.7731  -13.0195 C   0  0  0  0  0  0  0  0  0  0  0  0
    6.7164   27.0406  -12.4507 C   0  0  0  0  0  0  0  0  0  0  0  0
    6.9066   25.7208  -12.2261 N   0  0  0  0  0  0  0  0  0  0  0  0
    5.8914   25.0035  -11.7039 C   0  0  0  0  0  0  0  0  0  0  0  0
    4.6312   25.5534  -11.4268 C   0  0  0  0  0  0  0  0  0  0  0  0
    3.5388   24.6415  -10.8985 C   0  0  0  0  0  0  0  0  0  0  0  0
    2.5347   24.5898  -11.9076 O   0  0  0  0  0  0  0  0  0  0  0  0
    1.3252   23.5784  -11.7602 P   0  0  0  0  0  5  0  0  0  0  0  0
    0.4947   23.3524  -12.9422 O   0  0  0  0  0  0  0  0  0  0  0  0
    1.9536   22.3079  -11.1074 O   0  0  0  0  0  0  0  0  0  0  0  0
    0.5630   24.1517  -10.5317 O   0  0  0  0  0  0  0  0  0  0  0  0
    4.3997   26.9209  -11.7022 C   0  0  0  0  0  0  0  0  0  0  0  0
    3.0317   27.5086  -11.4630 C   0  0  0  0  0  0  0  0  0  0  0  0
    2.6094   28.5070  -12.0110 O   0  0  0  0  0  0  0  0  0  0  0  0
    5.4806   27.6935  -12.2016 C   0  0  0  0  0  0  0  0  0  0  0  0
    5.3504   29.0490  -12.4126 O   0  0  0  0  0  0  0  0  0  0  0  0
 16 15  1  0
 15  2  2  0
  2  1  1  0
  2  3  1  0
  3  4  2  0
  4  5  1  0
  5  6  1  0
  6  7  1  0
  7  8  1  0
  8  9  2  0
  8 10  1  0
  8 11  1  0
  5 12  2  0
 12 13  1  0
 13 14  2  0
 12 15  1  0
M  END
$$$$
