
     RDKit          3D

 16 16  0  0  0  0  0  0  0  0999 V2000
    7.8425   27.9147  -12.9535 C   0  0  0  0  0  0  0  0  0  0  0  0
    6.6500   27.1303  -12.4047 C   0  0  0  0  0  0  0  0  0  0  0  0
    6.8762   25.8091  -12.2332 N   0  0  0  0  0  0  0  0  0  0  0  0
    5.8793   25.0441  -11.7453 C   0  0  0  0  0  0  0  0  0  0  0  0
    4.5998   25.5446  -11.4605 C   0  0  0  0  0  0  0  0  0  0  0  0
    3.5433   24.5745  -10.9593 C   0  0  0  0  0  0  0  0  0  0  0  0
    2.5788   24.4293  -11.9984 O   0  0  0  0  0  0  0  0  0  0  0  0
    1.3016   23.5254  -11.7356 P   0  0  0  0  0  5  0  0  0  0  0  0
    0.4175   23.2540  -12.8671 O   0  0  0  0  0  0  0  0  0  0  0  0
    1.8698   22.2734  -10.9975 O   0  0  0  0  0  0  0  0  0  0  0  0
    0.6120   24.2666  -10.5511 O   0  0  0  0  0  0  0  0  0  0  0  0
    4.3287   26.9189  -11.6767 C   0  0  0  0  0  0  0  0  0  0  0  0
    2.9363   27.4599  -11.4312 C   0  0  0  0  0  0  0  0  0  0  0  0
    2.5198   28.5237  -11.8522 O   0  0  0  0  0  0  0  0  0  0  0  0
    5.3974   27.7393  -12.1305 C   0  0  0  0  0  0  0  0  0  0  0  0
    5.2440   29.0976  -12.2886 O   0  0  0  0  0  0  0  0  0  0  0  0
 16 15  1  0
 15  2  2  0
  2  1  1  0
  2  3  1  0
  3  4  2  0
  4  5  1  0
  5  6  1  0
  6  7  1  0
  7  8  1  0
  8  9  2  0
  8 10  1  0
  8 11  1  0
  5 12  2  0
 12 13  1  0
 13 14  2  0
 12 15  1  0
M  END
$$$$
