
     RDKit          3D

 16 16  0  0  0  0  0  0  0  0999 V2000
    8.1573   27.6823  -13.0527 C   0  0  0  0  0  0  0  0  0  0  0  0
    6.8977   26.9701  -12.5592 C   0  0  0  0  0  0  0  0  0  0  0  0
    7.0653   25.6648  -12.2561 N   0  0  0  0  0  0  0  0  0  0  0  0
    6.0151   24.9704  -11.7764 C   0  0  0  0  0  0  0  0  0  0  0  0
    4.7363   25.5267  -11.6238 C   0  0  0  0  0  0  0  0  0  0  0  0
    3.6239   24.6414  -11.0793 C   0  0  0  0  0  0  0  0  0  0  0  0
    2.5990   24.5824  -12.0658 O   0  0  0  0  0  0  0  0  0  0  0  0
    1.3322   23.6584  -11.8234 P   0  0  0  0  0  5  0  0  0  0  0  0
    0.3980   23.4966  -12.9363 O   0  0  0  0  0  0  0  0  0  0  0  0
    1.9219   22.3409  -11.2289 O   0  0  0  0  0  0  0  0  0  0  0  0
    0.7068   24.2588  -10.5280 O   0  0  0  0  0  0  0  0  0  0  0  0
    4.5269   26.8784  -11.9989 C   0  0  0  0  0  0  0  0  0  0  0  0
    3.1479   27.4890  -11.9120 C   0  0  0  0  0  0  0  0  0  0  0  0
    2.8095   28.5129  -12.4756 O   0  0  0  0  0  0  0  0  0  0  0  0
    5.6478   27.6282  -12.4440 C   0  0  0  0  0  0  0  0  0  0  0  0
    5.5421   28.9733  -12.7194 O   0  0  0  0  0  0  0  0  0  0  0  0
 16 15  1  0
 15  2  2  0
  2  1  1  0
  2  3  1  0
  3  4  2  0
  4  5  1  0
  5  6  1  0
  6  7  1  0
  7  8  1  0
  8  9  2  0
  8 10  1  0
  8 11  1  0
  5 12  2  0
 12 13  1  0
 13 14  2  0
 12 15  1  0
M  END
$$$$
