
     RDKit          3D

 16 16  0  0  0  0  0  0  0  0999 V2000
    7.8119   27.9156  -13.0677 C   0  0  0  0  0  0  0  0  0  0  0  0
    6.6330   27.1120  -12.5209 C   0  0  0  0  0  0  0  0  0  0  0  0
    6.9077   25.8175  -12.2432 N   0  0  0  0  0  0  0  0  0  0  0  0
    5.9261   25.0452  -11.7379 C   0  0  0  0  0  0  0  0  0  0  0  0
    4.6159   25.5050  -11.5431 C   0  0  0  0  0  0  0  0  0  0  0  0
    3.5950   24.5366  -10.9748 C   0  0  0  0  0  0  0  0  0  0  0  0
    2.6660   24.2395  -11.9967 O   0  0  0  0  0  0  0  0  0  0  0  0
    1.3250   23.5105  -11.5744 P   0  0  0  0  0  5  0  0  0  0  0  0
    1.4592   22.3814  -10.6504 O   0  0  0  0  0  0  0  0  0  0  0  0
    0.4816   24.7029  -11.0284 O   0  0  0  0  0  0  0  0  0  0  0  0
    0.6658   23.2215  -12.9635 O   0  0  0  0  0  0  0  0  0  0  0  0
    4.2891   26.8366  -11.9067 C   0  0  0  0  0  0  0  0  0  0  0  0
    2.8557   27.3202  -11.8470 C   0  0  0  0  0  0  0  0  0  0  0  0
    2.4042   28.2280  -12.5243 O   0  0  0  0  0  0  0  0  0  0  0  0
    5.3412   27.6756  -12.3565 C   0  0  0  0  0  0  0  0  0  0  0  0
    5.1207   29.0112  -12.6045 O   0  0  0  0  0  0  0  0  0  0  0  0
 16 15  1  0
 15  2  2  0
  2  1  1  0
  2  3  1  0
  3  4  2  0
  4  5  1  0
  5  6  1  0
  6  7  1  0
  7  8  1  0
  8  9  2  0
  8 10  1  0
  8 11  1  0
  5 12  2  0
 12 13  1  0
 13 14  2  0
 12 15  1  0
M  END
$$$$
