
     RDKit          3D

 16 16  0  0  0  0  0  0  0  0999 V2000
   -3.8556   -0.7635   -1.6925 C   0  0  0  0  0  0  0  0  0  0  0  0
   -2.5020   -0.3033   -1.2390 C   0  0  0  0  0  0  0  0  0  0  0  0
   -2.3378    1.0366   -1.1639 N   0  0  0  0  0  0  0  0  0  0  0  0
   -1.1385    1.5071   -0.7564 C   0  0  0  0  0  0  0  0  0  0  0  0
   -0.0510    0.7106   -0.4181 C   0  0  0  0  0  0  0  0  0  0  0  0
   -0.2372   -0.6797   -0.5049 C   0  0  0  0  0  0  0  0  0  0  0  0
   -1.4774   -1.1943   -0.9165 C   0  0  0  0  0  0  0  0  0  0  0  0
   -1.6405   -2.5520   -0.9963 O   0  0  0  0  0  0  0  0  0  0  0  0
    0.8385   -1.6558   -0.1719 C   0  0  0  0  0  0  0  0  0  0  0  0
    1.9980   -1.3441    0.0847 O   0  0  0  0  0  0  0  0  0  0  0  0
    1.2204    1.3761    0.0208 C   0  0  0  0  0  0  0  0  0  0  0  0
    1.4619    1.0383    1.3694 O   0  0  0  0  0  0  0  0  0  0  0  0
    2.9612    1.2262    1.8900 P   0  0  0  0  0  5  0  0  0  0  0  0
    3.4672    2.6271    1.8694 O   0  0  0  0  0  0  0  0  0  0  0  0
    2.9638    0.5561    3.3373 O   0  0  0  0  0  0  0  0  0  0  0  0
    3.8100    0.1833    1.0355 O   0  0  0  0  0  0  0  0  0  0  0  0
  1  2  1  0
  2  3  2  0
  3  4  1  0
  4  5  2  0
  5  6  1  0
  6  7  2  0
  7  8  1  0
  6  9  1  0
  9 10  2  0
  5 11  1  0
 11 12  1  0
 12 13  1  0
 13 14  2  0
 13 15  1  0
 13 16  1  0
  7  2  1  0
M  END
$$$$
