
     RDKit          3D

 22 23  0  0  0  0  0  0  0  0999 V2000
  -25.4519   50.2613    1.5317 C   0  0  0  0  0  0  0  0  0  0  0  0
  -24.7168   50.9761    0.4002 C   0  0  0  0  0  0  0  0  0  0  0  0
  -24.7106   52.3211    0.4827 N   0  0  0  0  0  0  0  0  0  0  0  0
  -24.0953   53.0222   -0.4836 C   0  0  0  0  0  0  0  0  0  0  0  0
  -23.4756   52.4184   -1.5917 C   0  0  0  0  0  0  0  0  0  0  0  0
  -22.8470   53.3468   -2.6193 C   0  0  0  0  0  0  0  0  0  0  0  0
  -23.3245   52.9697   -3.8959 O   0  0  0  0  0  0  0  0  0  0  0  0
  -22.7679   53.7826   -5.1289 P   0  0  0  0  0  5  0  0  0  0  0  0
  -22.5126   55.2039   -4.9291 O   0  0  0  0  0  0  0  0  0  0  0  0
  -23.7682   53.3485   -6.2452 O   0  0  0  0  0  0  0  0  0  0  0  0
  -21.4959   52.9335   -5.4446 O   0  0  0  0  0  0  0  0  0  0  0  0
  -23.5080   51.0013   -1.7275 C   0  0  0  0  0  0  0  0  0  0  0  0
  -23.0408   50.3309   -3.0298 C   0  0  0  0  0  0  0  0  0  0  0  0
  -22.3751   49.0143   -2.8578 N   0  0  0  0  0  4  0  0  0  0  0  0
  -22.5431   48.1192   -4.0567 C   0  0  0  0  0  0  0  0  0  0  0  0
  -22.3528   48.4370   -5.3634 C   0  0  0  0  0  0  0  0  0  0  0  0
  -22.4395   47.3380   -6.1831 O   0  0  0  0  0  0  0  0  0  0  0  0
  -22.6678   46.2305   -5.2757 N   0  0  0  0  0  0  0  0  0  0  0  0
  -22.7439   46.6910   -3.9868 C   0  0  0  0  0  0  0  0  0  0  0  0
  -22.9068   46.0359   -2.9785 O   0  0  0  0  0  0  0  0  0  0  0  0
  -24.1305   50.2693   -0.6872 C   0  0  0  0  0  0  0  0  0  0  0  0
  -24.1949   48.8983   -0.7480 O   0  0  0  0  0  0  0  0  0  0  0  0
 22 21  1  0
 21  2  2  0
  2  1  1  0
  2  3  1  0
  3  4  2  0
  4  5  1  0
  5  6  1  0
  6  7  1  0
  7  8  1  0
  8  9  2  0
  8 10  1  0
  8 11  1  0
  5 12  2  0
 12 13  1  0
 13 14  1  0
 14 15  1  0
 15 16  2  0
 16 17  1  0
 17 18  1  0
 18 19  1  0
 19 20  2  0
 12 21  1  0
 19 15  1  0
M  CHG  1  14   1
M  END
$$$$
