
     RDKit          3D

 22 23  0  0  0  0  0  0  0  0999 V2000
    8.0055   27.8972  -13.1101 C   0  0  0  0  0  0  0  0  0  0  0  0
    6.8197   27.0738  -12.6059 C   0  0  0  0  0  0  0  0  0  0  0  0
    7.1195   25.8278  -12.1798 N   0  0  0  0  0  0  0  0  0  0  0  0
    6.1284   25.0507  -11.6895 C   0  0  0  0  0  0  0  0  0  0  0  0
    4.7811   25.4593  -11.6561 C   0  0  0  0  0  0  0  0  0  0  0  0
    3.7288   24.5117  -11.0843 C   0  0  0  0  0  0  0  0  0  0  0  0
    2.7444   24.2806  -12.0870 O   0  0  0  0  0  0  0  0  0  0  0  0
    1.3958   23.5925  -11.5987 P   0  0  0  0  0  5  0  0  0  0  0  0
    0.5580   24.3681  -10.6889 O   0  0  0  0  0  0  0  0  0  0  0  0
    1.9043   22.2293  -11.0407 O   0  0  0  0  0  0  0  0  0  0  0  0
    0.7463   23.1592  -12.9513 O   0  0  0  0  0  0  0  0  0  0  0  0
    4.4458   26.7418  -12.1578 C   0  0  0  0  0  0  0  0  0  0  0  0
    3.0034   27.2182  -12.2573 C   0  0  0  0  0  0  0  0  0  0  0  0
    2.6971   27.5342  -13.6761 N   0  0  0  0  0  4  0  0  0  0  0  0
    1.3158   28.0709  -13.9304 C   0  0  0  0  0  0  0  0  0  0  0  0
    0.2130   27.3120  -14.1504 C   0  0  0  0  0  0  0  0  0  0  0  0
   -0.8822   28.0760  -14.4668 O   0  0  0  0  0  0  0  0  0  0  0  0
   -0.3908   29.4464  -14.4529 N   0  0  0  0  0  0  0  0  0  0  0  0
    0.9403   29.4682  -14.1325 C   0  0  0  0  0  0  0  0  0  0  0  0
    1.6488   30.4524  -14.0127 O   0  0  0  0  0  0  0  0  0  0  0  0
    5.4890   27.5679  -12.6270 C   0  0  0  0  0  0  0  0  0  0  0  0
    5.1955   28.8239  -13.1062 O   0  0  0  0  0  0  0  0  0  0  0  0
 22 21  1  0
 21  2  2  0
  2  1  1  0
  2  3  1  0
  3  4  2  0
  4  5  1  0
  5  6  1  0
  6  7  1  0
  7  8  1  0
  8  9  2  0
  8 10  1  0
  8 11  1  0
  5 12  2  0
 12 13  1  0
 13 14  1  0
 14 15  1  0
 15 16  2  0
 16 17  1  0
 17 18  1  0
 18 19  1  0
 19 20  2  0
 12 21  1  0
 19 15  1  0
M  CHG  1  14   1
M  END
$$$$
