
     RDKit          3D

 22 23  0  0  0  0  0  0  0  0999 V2000
    7.6153   27.9504  -13.2954 C   0  0  0  0  0  0  0  0  0  0  0  0
    6.4551   27.1418  -12.7240 C   0  0  0  0  0  0  0  0  0  0  0  0
    6.7769   25.9143  -12.2652 N   0  0  0  0  0  0  0  0  0  0  0  0
    5.8037   25.1594  -11.7213 C   0  0  0  0  0  0  0  0  0  0  0  0
    4.4558   25.5634  -11.6677 C   0  0  0  0  0  0  0  0  0  0  0  0
    3.4892   24.5819  -11.0355 C   0  0  0  0  0  0  0  0  0  0  0  0
    2.2546   24.5825  -11.7473 O   0  0  0  0  0  0  0  0  0  0  0  0
    1.3772   23.2819  -11.5796 P   0  0  0  0  0  5  0  0  0  0  0  0
    1.6873   22.0922  -12.3511 O   0  0  0  0  0  0  0  0  0  0  0  0
   -0.0789   23.7678  -11.6746 O   0  0  0  0  0  0  0  0  0  0  0  0
    1.3881   23.1386  -10.0452 O   0  0  0  0  0  0  0  0  0  0  0  0
    4.0933   26.8316  -12.2007 C   0  0  0  0  0  0  0  0  0  0  0  0
    2.6573   27.3308  -12.3269 C   0  0  0  0  0  0  0  0  0  0  0  0
    2.3036   27.5614  -13.7644 N   0  0  0  0  0  4  0  0  0  0  0  0
    0.9196   28.1279  -13.9453 C   0  0  0  0  0  0  0  0  0  0  0  0
   -0.0721   27.5949  -14.7055 C   0  0  0  0  0  0  0  0  0  0  0  0
   -1.2193   28.3539  -14.6696 O   0  0  0  0  0  0  0  0  0  0  0  0
   -0.8765   29.4691  -13.7995 N   0  0  0  0  0  0  0  0  0  0  0  0
    0.3955   29.3282  -13.3187 C   0  0  0  0  0  0  0  0  0  0  0  0
    0.9843   30.0486  -12.5350 O   0  0  0  0  0  0  0  0  0  0  0  0
    5.1265   27.6412  -12.7099 C   0  0  0  0  0  0  0  0  0  0  0  0
    4.8180   28.8840  -13.2103 O   0  0  0  0  0  0  0  0  0  0  0  0
 22 21  1  0
 21  2  2  0
  2  1  1  0
  2  3  1  0
  3  4  2  0
  4  5  1  0
  5  6  1  0
  6  7  1  0
  7  8  1  0
  8  9  2  0
  8 10  1  0
  8 11  1  0
  5 12  2  0
 12 13  1  0
 13 14  1  0
 14 15  1  0
 15 16  2  0
 16 17  1  0
 17 18  1  0
 18 19  1  0
 19 20  2  0
 12 21  1  0
 19 15  1  0
M  CHG  1  14   1
M  END
$$$$
