
     RDKit          3D

 22 23  0  0  0  0  0  0  0  0999 V2000
    7.8816   28.1667  -13.0966 C   0  0  0  0  0  0  0  0  0  0  0  0
    6.6993   27.3463  -12.5857 C   0  0  0  0  0  0  0  0  0  0  0  0
    7.0037   26.0898  -12.1955 N   0  0  0  0  0  0  0  0  0  0  0  0
    6.0179   25.3044  -11.7200 C   0  0  0  0  0  0  0  0  0  0  0  0
    4.6690   25.7043  -11.6841 C   0  0  0  0  0  0  0  0  0  0  0  0
    3.6621   24.7040  -11.1306 C   0  0  0  0  0  0  0  0  0  0  0  0
    2.5809   24.5981  -12.0472 O   0  0  0  0  0  0  0  0  0  0  0  0
    1.3348   23.6773  -11.6816 P   0  0  0  0  0  5  0  0  0  0  0  0
    0.3739   23.4425  -12.7564 O   0  0  0  0  0  0  0  0  0  0  0  0
    0.7555   24.4059  -10.4255 O   0  0  0  0  0  0  0  0  0  0  0  0
    1.9552   22.4120  -11.0149 O   0  0  0  0  0  0  0  0  0  0  0  0
    4.3227   26.9984  -12.1665 C   0  0  0  0  0  0  0  0  0  0  0  0
    2.8816   27.4807  -12.2938 C   0  0  0  0  0  0  0  0  0  0  0  0
    2.4652   27.6531  -13.7248 N   0  0  0  0  0  4  0  0  0  0  0  0
    1.0546   28.1896  -13.8664 C   0  0  0  0  0  0  0  0  0  0  0  0
   -0.0747   27.4657  -13.6602 C   0  0  0  0  0  0  0  0  0  0  0  0
   -1.2155   28.1989  -13.8742 O   0  0  0  0  0  0  0  0  0  0  0  0
   -0.7348   29.4854  -14.3297 N   0  0  0  0  0  0  0  0  0  0  0  0
    0.6325   29.5319  -14.2790 C   0  0  0  0  0  0  0  0  0  0  0  0
    1.3349   30.5013  -14.5110 O   0  0  0  0  0  0  0  0  0  0  0  0
    5.3683   27.8466  -12.5797 C   0  0  0  0  0  0  0  0  0  0  0  0
    5.0740   29.1308  -12.9730 O   0  0  0  0  0  0  0  0  0  0  0  0
 22 21  1  0
 21  2  2  0
  2  1  1  0
  2  3  1  0
  3  4  2  0
  4  5  1  0
  5  6  1  0
  6  7  1  0
  7  8  1  0
  8  9  2  0
  8 10  1  0
  8 11  1  0
  5 12  2  0
 12 13  1  0
 13 14  1  0
 14 15  1  0
 15 16  2  0
 16 17  1  0
 17 18  1  0
 18 19  1  0
 19 20  2  0
 12 21  1  0
 19 15  1  0
M  CHG  1  14   1
M  END
$$$$
