
     RDKit          3D

 22 23  0  0  0  0  0  0  0  0999 V2000
    7.7427   28.0583  -13.1426 C   0  0  0  0  0  0  0  0  0  0  0  0
    6.6026   27.2070  -12.5898 C   0  0  0  0  0  0  0  0  0  0  0  0
    6.9495   25.9551  -12.2145 N   0  0  0  0  0  0  0  0  0  0  0  0
    5.9990   25.1496  -11.6976 C   0  0  0  0  0  0  0  0  0  0  0  0
    4.6480   25.5287  -11.5982 C   0  0  0  0  0  0  0  0  0  0  0  0
    3.6667   24.5303  -11.0057 C   0  0  0  0  0  0  0  0  0  0  0  0
    2.6528   24.3061  -11.9644 O   0  0  0  0  0  0  0  0  0  0  0  0
    1.3980   23.4659  -11.4931 P   0  0  0  0  0  5  0  0  0  0  0  0
    1.6572   22.2094  -10.7922 O   0  0  0  0  0  0  0  0  0  0  0  0
    0.5791   23.4199  -12.8244 O   0  0  0  0  0  0  0  0  0  0  0  0
    0.6450   24.5612  -10.6716 O   0  0  0  0  0  0  0  0  0  0  0  0
    4.2584   26.8122  -12.0677 C   0  0  0  0  0  0  0  0  0  0  0  0
    2.8061   27.2558  -12.1563 C   0  0  0  0  0  0  0  0  0  0  0  0
    2.4044   27.5340  -13.5748 N   0  0  0  0  0  4  0  0  0  0  0  0
    0.9850   28.0442  -13.6929 C   0  0  0  0  0  0  0  0  0  0  0  0
   -0.1075   27.3476  -13.3001 C   0  0  0  0  0  0  0  0  0  0  0  0
   -1.2835   28.0142  -13.5402 O   0  0  0  0  0  0  0  0  0  0  0  0
   -0.8654   29.1975  -14.2505 N   0  0  0  0  0  0  0  0  0  0  0  0
    0.4994   29.2951  -14.2763 C   0  0  0  0  0  0  0  0  0  0  0  0
    1.1501   30.2514  -14.6573 O   0  0  0  0  0  0  0  0  0  0  0  0
    5.2644   27.6813  -12.5254 C   0  0  0  0  0  0  0  0  0  0  0  0
    4.9213   28.9589  -12.9053 O   0  0  0  0  0  0  0  0  0  0  0  0
 22 21  1  0
 21  2  2  0
  2  1  1  0
  2  3  1  0
  3  4  2  0
  4  5  1  0
  5  6  1  0
  6  7  1  0
  7  8  1  0
  8  9  2  0
  8 10  1  0
  8 11  1  0
  5 12  2  0
 12 13  1  0
 13 14  1  0
 14 15  1  0
 15 16  2  0
 16 17  1  0
 17 18  1  0
 18 19  1  0
 19 20  2  0
 12 21  1  0
 19 15  1  0
M  CHG  1  14   1
M  END
$$$$
