
     RDKit          3D

 22 23  0  0  0  0  0  0  0  0999 V2000
   -0.5664    3.7068   -2.7320 C   0  0  0  0  0  0  0  0  0  0  0  0
    0.0319    2.5762   -1.9492 C   0  0  0  0  0  0  0  0  0  0  0  0
    1.3488    2.3659   -2.1392 N   0  0  0  0  0  0  0  0  0  0  0  0
    1.9476    1.3684   -1.4517 C   0  0  0  0  0  0  0  0  0  0  0  0
    1.2935    0.5220   -0.5590 C   0  0  0  0  0  0  0  0  0  0  0  0
   -0.0960    0.7150   -0.3902 C   0  0  0  0  0  0  0  0  0  0  0  0
   -0.7136    1.7779   -1.0807 C   0  0  0  0  0  0  0  0  0  0  0  0
   -2.0598    1.9702   -0.8732 O   0  0  0  0  0  0  0  0  0  0  0  0
   -0.9100   -0.1370    0.5570 C   0  0  0  0  0  0  0  0  0  0  0  0
   -2.2316   -0.5314   -0.0214 N   0  0  0  0  0  4  0  0  0  0  0  0
   -3.0154   -1.2522    0.8865 C   0  0  0  0  0  0  0  0  0  0  0  0
   -4.0513   -0.8711    1.6129 C   0  0  0  0  0  0  0  0  0  0  0  0
   -4.6153   -1.8648    2.3908 O   0  0  0  0  0  0  0  0  0  0  0  0
   -3.8177   -2.9976    2.0802 N   0  0  0  0  0  0  0  0  0  0  0  0
   -2.8429   -2.6800    1.1745 C   0  0  0  0  0  0  0  0  0  0  0  0
   -1.9769   -3.3682    0.6706 O   0  0  0  0  0  0  0  0  0  0  0  0
    2.0644   -0.5665    0.1551 C   0  0  0  0  0  0  0  0  0  0  0  0
    3.4604   -0.3678    0.0767 O   0  0  0  0  0  0  0  0  0  0  0  0
    4.3580   -1.4438    0.8506 P   0  0  0  0  0  5  0  0  0  0  0  0
    4.1497   -2.8661    0.4742 O   0  0  0  0  0  0  0  0  0  0  0  0
    4.0996   -1.1233    2.3917 O   0  0  0  0  0  0  0  0  0  0  0  0
    5.8396   -0.9013    0.6444 O   0  0  0  0  0  0  0  0  0  0  0  0
  1  2  1  0
  2  3  2  0
  3  4  1  0
  4  5  2  0
  5  6  1  0
  6  7  2  0
  7  8  1  0
  6  9  1  0
  9 10  1  0
 10 11  1  0
 11 12  2  0
 12 13  1  0
 13 14  1  0
 14 15  1  0
 15 16  2  0
  5 17  1  0
 17 18  1  0
 18 19  1  0
 19 20  2  0
 19 21  1  0
 19 22  1  0
  7  2  1  0
 15 11  1  0
M  CHG  1  10   1
M  END
$$$$
